Version 4
SHEET 1 1200 680
WIRE 800 32 736 32
WIRE 208 96 64 96
WIRE 384 112 272 112
WIRE 528 112 384 112
WIRE 624 112 608 112
WIRE 656 112 656 32
WIRE 656 112 624 112
WIRE 688 112 656 112
WIRE 800 128 800 32
WIRE 800 128 752 128
WIRE 688 144 656 144
WIRE 544 160 528 160
WIRE 624 160 624 112
WIRE 656 224 656 144
FLAG 208 128 0
FLAG -16 96 0
FLAG -384 80 0
FLAG -304 80 0
FLAG -384 0 +5
FLAG 240 80 +5
FLAG -304 0 -5
FLAG 240 144 -5
FLAG 384 256 0
FLAG 528 160 -5
FLAG 656 224 0
FLAG 720 96 +5
FLAG 720 160 -5
SYMBOL OpAmps\\LF356 240 48 R0
SYMATTR InstName U1
SYMBOL voltage 80 96 R90
WINDOW 0 -32 56 VBottom 2
WINDOW 3 32 56 VTop 2
WINDOW 123 0 0 Left 0
WINDOW 39 0 0 Left 0
SYMATTR InstName V1
SYMATTR Value SINE(0 1 2000)
SYMBOL voltage -384 -16 R0
WINDOW 123 0 0 Left 0
WINDOW 39 0 0 Left 0
SYMATTR InstName V2
SYMATTR Value 5
SYMBOL voltage -304 -16 R0
WINDOW 123 0 0 Left 0
WINDOW 39 0 0 Left 0
SYMATTR InstName V3
SYMATTR Value -5
SYMBOL res 368 96 R0
SYMATTR InstName R1
SYMATTR Value 10k
SYMBOL diode 400 256 R180
WINDOW 0 24 64 Left 2
WINDOW 3 24 0 Left 2
SYMATTR InstName D1
SYMBOL OpAmps\\LF356 720 64 R0
SYMATTR InstName U2
SYMBOL res 624 96 R90
WINDOW 0 0 56 VBottom 2
WINDOW 3 32 56 VTop 2
SYMATTR InstName R2
SYMATTR Value 10k
SYMBOL res 640 144 R90
WINDOW 0 0 56 VBottom 2
WINDOW 3 32 56 VTop 2
SYMATTR InstName R3
SYMATTR Value 10k
SYMBOL res 752 16 R90
WINDOW 0 0 56 VBottom 2
WINDOW 3 32 56 VTop 2
SYMATTR InstName R4
SYMATTR Value 5k
TEXT 136 320 Left 2 !.tran 0.005
