Version 4
SHEET 1 880 680
WIRE 160 48 160 16
WIRE 160 64 160 48
WIRE -80 144 -96 144
WIRE -64 144 -80 144
WIRE 48 144 48 16
WIRE 48 144 0 144
WIRE 112 144 48 144
WIRE 48 208 48 144
WIRE 160 224 160 160
FLAG 48 288 0
FLAG 160 224 0
FLAG 368 16 +5
FLAG 160 -64 +5
FLAG 48 -64 +5
FLAG -176 144 0
FLAG 368 96 0
FLAG -80 144 Vin
FLAG 160 48 Vout
SYMBOL res 144 -80 R0
SYMATTR InstName R1
SYMATTR Value 100k
SYMBOL res 32 -80 R0
SYMATTR InstName R2
SYMATTR Value 330k
SYMBOL res 32 192 R0
SYMATTR InstName R3
SYMATTR Value 156295
SYMBOL voltage 368 0 R0
WINDOW 123 0 0 Left 0
WINDOW 39 0 0 Left 0
SYMATTR InstName V1
SYMATTR Value 5
SYMBOL voltage -80 144 R90
WINDOW 0 -32 56 VBottom 2
WINDOW 3 32 56 VTop 2
WINDOW 123 60 56 VTop 2
WINDOW 39 0 0 Left 0
SYMATTR InstName V2
SYMATTR Value ""
SYMATTR Value2 AC 0.01
SYMBOL cap 0 128 R90
WINDOW 0 0 32 VBottom 2
WINDOW 3 32 32 VTop 2
SYMATTR InstName C1
SYMATTR Value 1µF
SYMBOL nmos 112 64 R0
SYMATTR InstName M1
SYMATTR Value 2N7000
TEXT 336 176 Left 2 !.ac oct 100 100 1Meg
