Version 4
SHEET 1 1176 680
WIRE 208 32 160 32
WIRE 336 32 272 32
WIRE 528 32 336 32
WIRE 336 48 336 32
WIRE 768 48 720 48
WIRE 896 48 832 48
WIRE 1088 48 896 48
WIRE 896 64 896 48
WIRE 32 144 -48 144
WIRE 160 144 160 32
WIRE 160 144 112 144
WIRE 208 144 160 144
WIRE 336 144 336 128
WIRE 336 144 272 144
WIRE 400 144 336 144
WIRE 160 160 160 144
WIRE 528 160 528 32
WIRE 528 160 464 160
WIRE 592 160 528 160
WIRE 720 160 720 48
WIRE 720 160 672 160
WIRE 768 160 720 160
WIRE 896 160 896 144
WIRE 896 160 832 160
WIRE 960 160 896 160
WIRE -48 176 -48 144
WIRE 400 176 336 176
WIRE 528 176 528 160
WIRE 720 176 720 160
WIRE 1088 176 1088 48
WIRE 1088 176 1024 176
WIRE 960 192 896 192
WIRE 1088 192 1088 176
WIRE 336 272 336 176
WIRE 528 272 528 256
WIRE 528 272 336 272
WIRE 528 288 528 272
WIRE 896 288 896 192
WIRE 1088 288 1088 272
WIRE 1088 288 896 288
WIRE 1088 304 1088 288
WIRE -48 400 -48 256
WIRE 160 400 160 240
WIRE 160 400 -48 400
WIRE 528 400 528 368
WIRE 528 400 160 400
WIRE 720 400 720 256
WIRE 720 400 528 400
WIRE 1088 400 1088 384
WIRE 1088 400 720 400
WIRE -48 432 -48 400
FLAG -48 432 0
FLAG 128 576 0
FLAG 256 576 0
FLAG 128 496 Vp
FLAG 432 128 Vp
FLAG 992 144 Vp
FLAG 256 496 Vn
FLAG 992 208 Vn
FLAG 432 192 Vn
SYMBOL res 128 128 R90
WINDOW 0 0 56 VBottom 2
WINDOW 3 32 56 VTop 2
SYMATTR InstName R1
SYMATTR Value 159k
SYMBOL res 176 256 R180
WINDOW 0 36 76 Left 2
WINDOW 3 36 40 Left 2
SYMATTR InstName R2
SYMATTR Value 684
SYMBOL cap 272 128 R90
WINDOW 0 0 32 VBottom 2
WINDOW 3 32 32 VTop 2
SYMATTR InstName C1
SYMATTR Value 10n
SYMBOL cap 272 16 R90
WINDOW 0 0 32 VBottom 2
WINDOW 3 32 32 VTop 2
SYMATTR InstName C2
SYMATTR Value 10n
SYMBOL res 320 32 R0
SYMATTR InstName R3
SYMATTR Value 68.1k
SYMBOL LF356 432 96 R0
SYMATTR InstName U1
SYMBOL res 512 160 R0
SYMATTR InstName R4
SYMATTR Value 65k
SYMBOL res 512 272 R0
SYMATTR InstName R5
SYMATTR Value 1.1k
SYMBOL res 688 144 R90
WINDOW 0 0 56 VBottom 2
WINDOW 3 32 56 VTop 2
SYMATTR InstName R6
SYMATTR Value 164k
SYMBOL res 736 272 R180
WINDOW 0 36 76 Left 2
WINDOW 3 36 40 Left 2
SYMATTR InstName R7
SYMATTR Value 706
SYMBOL cap 832 144 R90
WINDOW 0 0 32 VBottom 2
WINDOW 3 32 32 VTop 2
SYMATTR InstName C3
SYMATTR Value 10n
SYMBOL cap 832 32 R90
WINDOW 0 0 32 VBottom 2
WINDOW 3 32 32 VTop 2
SYMATTR InstName C4
SYMATTR Value 10n
SYMBOL res 880 48 R0
SYMATTR InstName R8
SYMATTR Value 70.3k
SYMBOL LF356 992 112 R0
SYMATTR InstName U2
SYMBOL res 1072 176 R0
SYMATTR InstName R9
SYMATTR Value 66.8k
SYMBOL res 1072 288 R0
SYMATTR InstName R10
SYMATTR Value 1.13k
SYMBOL voltage -48 160 R0
WINDOW 123 24 124 Left 2
WINDOW 39 0 0 Left 0
SYMATTR InstName V1
SYMATTR Value ""
SYMATTR Value2 AC 1
SYMBOL voltage 128 480 R0
WINDOW 123 0 0 Left 0
WINDOW 39 0 0 Left 0
SYMATTR InstName V2
SYMATTR Value 5
SYMBOL voltage 256 592 R180
WINDOW 0 24 96 Left 2
WINDOW 3 24 16 Left 2
WINDOW 123 0 0 Left 0
WINDOW 39 0 0 Left 0
SYMATTR InstName V3
SYMATTR Value 5
TEXT 448 504 Left 2 !.ac dec 100 100 100k
