Version 4
SHEET 1 1168 680
WIRE 224 -16 192 -16
WIRE 352 -16 288 -16
WIRE 544 -16 352 -16
WIRE 352 0 352 -16
WIRE 848 0 816 0
WIRE 960 0 928 0
WIRE 816 96 816 0
WIRE 864 96 816 96
WIRE 960 112 960 0
WIRE 960 112 928 112
WIRE 1024 112 960 112
WIRE 144 128 96 128
WIRE 192 128 192 -16
WIRE 192 128 144 128
WIRE 224 128 192 128
WIRE 352 128 352 80
WIRE 352 128 288 128
WIRE 416 128 352 128
WIRE 864 128 640 128
WIRE 544 144 544 -16
WIRE 544 144 480 144
WIRE 640 144 640 128
WIRE 640 144 544 144
WIRE 416 160 384 160
WIRE 384 256 384 160
WIRE 544 256 544 224
WIRE 544 256 384 256
WIRE 544 272 544 256
FLAG 544 352 0
FLAG 144 208 0
FLAG 128 368 0
FLAG 64 368 0
FLAG 64 288 +5
FLAG 128 288 -5
FLAG 448 176 -5
FLAG 448 112 +5
FLAG -64 128 0
FLAG 544 -16 FilterVout
FLAG 736 96 0
FLAG 896 80 +5
FLAG 896 144 -5
FLAG 960 0 Vout
SYMBOL res 112 112 R90
WINDOW 0 0 56 VBottom 2
WINDOW 3 32 56 VTop 2
SYMATTR InstName R1
SYMATTR Value 82k
SYMBOL res 128 112 R0
SYMATTR InstName R2
SYMATTR Value 719
SYMBOL cap 288 112 R90
WINDOW 0 0 32 VBottom 2
WINDOW 3 32 32 VTop 2
SYMATTR InstName C1
SYMATTR Value 10nf
SYMBOL cap 288 -32 R90
WINDOW 0 0 32 VBottom 2
WINDOW 3 32 32 VTop 2
SYMATTR InstName C2
SYMATTR Value 10nf
SYMBOL res 336 -16 R0
SYMATTR InstName R3
SYMATTR Value 71.9k
SYMBOL OpAmps\\LF356 448 80 R0
SYMATTR InstName U1
SYMBOL res 528 128 R0
SYMATTR InstName R4
SYMATTR Value 68k
SYMBOL res 528 256 R0
SYMATTR InstName R5
SYMATTR Value 680
SYMBOL voltage 64 272 R0
WINDOW 123 0 0 Left 0
WINDOW 39 0 0 Left 0
SYMATTR InstName V1
SYMATTR Value 5
SYMBOL voltage 128 272 R0
WINDOW 123 0 0 Left 0
WINDOW 39 0 0 Left 0
SYMATTR InstName V2
SYMATTR Value -5
SYMBOL voltage 32 128 R90
WINDOW 0 -32 56 VBottom 2
WINDOW 3 32 56 VTop 2
SYMATTR InstName V3
SYMATTR Value AC 1
SYMBOL OpAmps\\LF356 896 48 R0
SYMATTR InstName U2
SYMBOL res 832 80 R90
WINDOW 0 0 56 VBottom 2
WINDOW 3 32 56 VTop 2
SYMATTR InstName R6
SYMATTR Value 10k
SYMBOL res 944 -16 R90
WINDOW 0 0 56 VBottom 2
WINDOW 3 32 56 VTop 2
SYMATTR InstName R7
SYMATTR Value 100k
TEXT -248 24 Left 2 ;From transimpedance amp
TEXT 200 448 Left 2 !.ac dec 100 50 82k
TEXT 1040 72 Left 2 ;To Arduino
